*SPEF "ieee 1481-1999"
*DESIGN "twos_complement"
*DATE "10:53:47 Friday April 25, 2025"
*VENDOR "The OpenROAD Project"
*PROGRAM "OpenROAD"
*VERSION "b16bda7e82721d10566ff7e2b68f1ff0be9f9e38"
*DESIGN_FLOW "NAME_SCOPE LOCAL" "PIN_CAP NONE"
*DIVIDER /
*DELIMITER :
*BUS_DELIMITER []
*T_UNIT 1 NS
*C_UNIT 1 PF
*R_UNIT 1 OHM
*L_UNIT 1 HENRY

*NAME_MAP
*3 in[0]
*4 in[1]
*5 in[2]
*6 in[3]
*7 in[4]
*8 in[5]
*9 in[6]
*10 in[7]
*11 out[0]
*12 out[1]
*13 out[2]
*14 out[3]
*15 out[4]
*16 out[5]
*17 out[6]
*18 out[7]
*19 _00_
*20 _01_
*21 _02_
*22 _03_
*23 _04_
*24 _05_
*25 _06_
*26 _07_
*27 _08_
*28 _09_
*29 net1
*30 net10
*31 net11
*32 net12
*33 net13
*34 net14
*35 net15
*36 net16
*37 net2
*38 net3
*39 net4
*40 net5
*41 net6
*42 net7
*43 net8
*44 net9
*45 ANTENNA_1
*46 ANTENNA_2
*47 FILLER_0_0_109
*48 FILLER_0_0_113
*49 FILLER_0_0_125
*50 FILLER_0_0_137
*51 FILLER_0_0_141
*52 FILLER_0_0_15
*53 FILLER_0_0_153
*54 FILLER_0_0_165
*55 FILLER_0_0_169
*56 FILLER_0_0_181
*57 FILLER_0_0_193
*58 FILLER_0_0_197
*59 FILLER_0_0_209
*60 FILLER_0_0_221
*61 FILLER_0_0_225
*62 FILLER_0_0_237
*63 FILLER_0_0_249
*64 FILLER_0_0_253
*65 FILLER_0_0_265
*66 FILLER_0_0_27
*67 FILLER_0_0_277
*68 FILLER_0_0_281
*69 FILLER_0_0_29
*70 FILLER_0_0_293
*71 FILLER_0_0_3
*72 FILLER_0_0_305
*73 FILLER_0_0_309
*74 FILLER_0_0_321
*75 FILLER_0_0_333
*76 FILLER_0_0_337
*77 FILLER_0_0_349
*78 FILLER_0_0_361
*79 FILLER_0_0_365
*80 FILLER_0_0_377
*81 FILLER_0_0_389
*82 FILLER_0_0_393
*83 FILLER_0_0_405
*84 FILLER_0_0_41
*85 FILLER_0_0_53
*86 FILLER_0_0_57
*87 FILLER_0_0_69
*88 FILLER_0_0_81
*89 FILLER_0_0_85
*90 FILLER_0_0_97
*91 FILLER_0_10_109
*92 FILLER_0_10_121
*93 FILLER_0_10_133
*94 FILLER_0_10_139
*95 FILLER_0_10_141
*96 FILLER_0_10_153
*97 FILLER_0_10_165
*98 FILLER_0_10_177
*99 FILLER_0_10_18
*100 FILLER_0_10_189
*101 FILLER_0_10_195
*102 FILLER_0_10_197
*103 FILLER_0_10_209
*104 FILLER_0_10_221
*105 FILLER_0_10_233
*106 FILLER_0_10_245
*107 FILLER_0_10_251
*108 FILLER_0_10_253
*109 FILLER_0_10_26
*110 FILLER_0_10_265
*111 FILLER_0_10_277
*112 FILLER_0_10_289
*113 FILLER_0_10_29
*114 FILLER_0_10_301
*115 FILLER_0_10_307
*116 FILLER_0_10_309
*117 FILLER_0_10_321
*118 FILLER_0_10_333
*119 FILLER_0_10_345
*120 FILLER_0_10_357
*121 FILLER_0_10_363
*122 FILLER_0_10_365
*123 FILLER_0_10_377
*124 FILLER_0_10_389
*125 FILLER_0_10_401
*126 FILLER_0_10_41
*127 FILLER_0_10_53
*128 FILLER_0_10_6
*129 FILLER_0_10_65
*130 FILLER_0_10_77
*131 FILLER_0_10_83
*132 FILLER_0_10_85
*133 FILLER_0_10_97
*134 FILLER_0_11_105
*135 FILLER_0_11_111
*136 FILLER_0_11_113
*137 FILLER_0_11_125
*138 FILLER_0_11_137
*139 FILLER_0_11_149
*140 FILLER_0_11_15
*141 FILLER_0_11_161
*142 FILLER_0_11_167
*143 FILLER_0_11_169
*144 FILLER_0_11_181
*145 FILLER_0_11_193
*146 FILLER_0_11_212
*147 FILLER_0_11_225
*148 FILLER_0_11_237
*149 FILLER_0_11_249
*150 FILLER_0_11_261
*151 FILLER_0_11_27
*152 FILLER_0_11_273
*153 FILLER_0_11_279
*154 FILLER_0_11_281
*155 FILLER_0_11_293
*156 FILLER_0_11_3
*157 FILLER_0_11_305
*158 FILLER_0_11_317
*159 FILLER_0_11_329
*160 FILLER_0_11_335
*161 FILLER_0_11_337
*162 FILLER_0_11_349
*163 FILLER_0_11_361
*164 FILLER_0_11_373
*165 FILLER_0_11_385
*166 FILLER_0_11_39
*167 FILLER_0_11_391
*168 FILLER_0_11_393
*169 FILLER_0_11_405
*170 FILLER_0_11_51
*171 FILLER_0_11_55
*172 FILLER_0_11_57
*173 FILLER_0_11_69
*174 FILLER_0_11_81
*175 FILLER_0_11_93
*176 FILLER_0_12_109
*177 FILLER_0_12_121
*178 FILLER_0_12_133
*179 FILLER_0_12_139
*180 FILLER_0_12_141
*181 FILLER_0_12_15
*182 FILLER_0_12_153
*183 FILLER_0_12_165
*184 FILLER_0_12_177
*185 FILLER_0_12_189
*186 FILLER_0_12_195
*187 FILLER_0_12_197
*188 FILLER_0_12_209
*189 FILLER_0_12_221
*190 FILLER_0_12_233
*191 FILLER_0_12_245
*192 FILLER_0_12_251
*193 FILLER_0_12_253
*194 FILLER_0_12_265
*195 FILLER_0_12_27
*196 FILLER_0_12_277
*197 FILLER_0_12_289
*198 FILLER_0_12_29
*199 FILLER_0_12_3
*200 FILLER_0_12_301
*201 FILLER_0_12_307
*202 FILLER_0_12_309
*203 FILLER_0_12_321
*204 FILLER_0_12_333
*205 FILLER_0_12_345
*206 FILLER_0_12_357
*207 FILLER_0_12_363
*208 FILLER_0_12_365
*209 FILLER_0_12_377
*210 FILLER_0_12_389
*211 FILLER_0_12_401
*212 FILLER_0_12_41
*213 FILLER_0_12_53
*214 FILLER_0_12_65
*215 FILLER_0_12_77
*216 FILLER_0_12_83
*217 FILLER_0_12_85
*218 FILLER_0_12_97
*219 FILLER_0_13_105
*220 FILLER_0_13_111
*221 FILLER_0_13_113
*222 FILLER_0_13_125
*223 FILLER_0_13_137
*224 FILLER_0_13_149
*225 FILLER_0_13_15
*226 FILLER_0_13_161
*227 FILLER_0_13_167
*228 FILLER_0_13_169
*229 FILLER_0_13_181
*230 FILLER_0_13_193
*231 FILLER_0_13_205
*232 FILLER_0_13_217
*233 FILLER_0_13_223
*234 FILLER_0_13_225
*235 FILLER_0_13_237
*236 FILLER_0_13_249
*237 FILLER_0_13_261
*238 FILLER_0_13_27
*239 FILLER_0_13_273
*240 FILLER_0_13_279
*241 FILLER_0_13_281
*242 FILLER_0_13_293
*243 FILLER_0_13_3
*244 FILLER_0_13_305
*245 FILLER_0_13_317
*246 FILLER_0_13_329
*247 FILLER_0_13_335
*248 FILLER_0_13_337
*249 FILLER_0_13_349
*250 FILLER_0_13_361
*251 FILLER_0_13_373
*252 FILLER_0_13_385
*253 FILLER_0_13_39
*254 FILLER_0_13_391
*255 FILLER_0_13_393
*256 FILLER_0_13_405
*257 FILLER_0_13_51
*258 FILLER_0_13_55
*259 FILLER_0_13_57
*260 FILLER_0_13_69
*261 FILLER_0_13_81
*262 FILLER_0_13_93
*263 FILLER_0_14_109
*264 FILLER_0_14_121
*265 FILLER_0_14_133
*266 FILLER_0_14_139
*267 FILLER_0_14_141
*268 FILLER_0_14_15
*269 FILLER_0_14_153
*270 FILLER_0_14_165
*271 FILLER_0_14_177
*272 FILLER_0_14_189
*273 FILLER_0_14_195
*274 FILLER_0_14_197
*275 FILLER_0_14_209
*276 FILLER_0_14_221
*277 FILLER_0_14_233
*278 FILLER_0_14_245
*279 FILLER_0_14_251
*280 FILLER_0_14_253
*281 FILLER_0_14_265
*282 FILLER_0_14_27
*283 FILLER_0_14_277
*284 FILLER_0_14_289
*285 FILLER_0_14_29
*286 FILLER_0_14_3
*287 FILLER_0_14_301
*288 FILLER_0_14_307
*289 FILLER_0_14_309
*290 FILLER_0_14_321
*291 FILLER_0_14_333
*292 FILLER_0_14_345
*293 FILLER_0_14_357
*294 FILLER_0_14_363
*295 FILLER_0_14_365
*296 FILLER_0_14_377
*297 FILLER_0_14_389
*298 FILLER_0_14_401
*299 FILLER_0_14_41
*300 FILLER_0_14_53
*301 FILLER_0_14_65
*302 FILLER_0_14_77
*303 FILLER_0_14_83
*304 FILLER_0_14_85
*305 FILLER_0_14_97
*306 FILLER_0_15_105
*307 FILLER_0_15_111
*308 FILLER_0_15_113
*309 FILLER_0_15_125
*310 FILLER_0_15_137
*311 FILLER_0_15_149
*312 FILLER_0_15_15
*313 FILLER_0_15_161
*314 FILLER_0_15_167
*315 FILLER_0_15_169
*316 FILLER_0_15_181
*317 FILLER_0_15_193
*318 FILLER_0_15_205
*319 FILLER_0_15_217
*320 FILLER_0_15_223
*321 FILLER_0_15_225
*322 FILLER_0_15_237
*323 FILLER_0_15_249
*324 FILLER_0_15_261
*325 FILLER_0_15_27
*326 FILLER_0_15_273
*327 FILLER_0_15_279
*328 FILLER_0_15_281
*329 FILLER_0_15_293
*330 FILLER_0_15_3
*331 FILLER_0_15_305
*332 FILLER_0_15_317
*333 FILLER_0_15_329
*334 FILLER_0_15_335
*335 FILLER_0_15_337
*336 FILLER_0_15_349
*337 FILLER_0_15_361
*338 FILLER_0_15_373
*339 FILLER_0_15_385
*340 FILLER_0_15_39
*341 FILLER_0_15_391
*342 FILLER_0_15_393
*343 FILLER_0_15_405
*344 FILLER_0_15_51
*345 FILLER_0_15_55
*346 FILLER_0_15_57
*347 FILLER_0_15_69
*348 FILLER_0_15_81
*349 FILLER_0_15_93
*350 FILLER_0_16_109
*351 FILLER_0_16_121
*352 FILLER_0_16_133
*353 FILLER_0_16_139
*354 FILLER_0_16_141
*355 FILLER_0_16_15
*356 FILLER_0_16_153
*357 FILLER_0_16_165
*358 FILLER_0_16_177
*359 FILLER_0_16_189
*360 FILLER_0_16_195
*361 FILLER_0_16_197
*362 FILLER_0_16_209
*363 FILLER_0_16_221
*364 FILLER_0_16_233
*365 FILLER_0_16_245
*366 FILLER_0_16_251
*367 FILLER_0_16_253
*368 FILLER_0_16_265
*369 FILLER_0_16_27
*370 FILLER_0_16_277
*371 FILLER_0_16_289
*372 FILLER_0_16_29
*373 FILLER_0_16_3
*374 FILLER_0_16_301
*375 FILLER_0_16_307
*376 FILLER_0_16_309
*377 FILLER_0_16_321
*378 FILLER_0_16_333
*379 FILLER_0_16_345
*380 FILLER_0_16_357
*381 FILLER_0_16_363
*382 FILLER_0_16_365
*383 FILLER_0_16_377
*384 FILLER_0_16_389
*385 FILLER_0_16_401
*386 FILLER_0_16_41
*387 FILLER_0_16_53
*388 FILLER_0_16_65
*389 FILLER_0_16_77
*390 FILLER_0_16_83
*391 FILLER_0_16_85
*392 FILLER_0_16_97
*393 FILLER_0_17_105
*394 FILLER_0_17_111
*395 FILLER_0_17_113
*396 FILLER_0_17_125
*397 FILLER_0_17_137
*398 FILLER_0_17_149
*399 FILLER_0_17_15
*400 FILLER_0_17_161
*401 FILLER_0_17_167
*402 FILLER_0_17_169
*403 FILLER_0_17_181
*404 FILLER_0_17_193
*405 FILLER_0_17_205
*406 FILLER_0_17_216
*407 FILLER_0_17_225
*408 FILLER_0_17_237
*409 FILLER_0_17_249
*410 FILLER_0_17_261
*411 FILLER_0_17_27
*412 FILLER_0_17_273
*413 FILLER_0_17_279
*414 FILLER_0_17_281
*415 FILLER_0_17_293
*416 FILLER_0_17_3
*417 FILLER_0_17_305
*418 FILLER_0_17_317
*419 FILLER_0_17_329
*420 FILLER_0_17_335
*421 FILLER_0_17_337
*422 FILLER_0_17_349
*423 FILLER_0_17_361
*424 FILLER_0_17_373
*425 FILLER_0_17_385
*426 FILLER_0_17_39
*427 FILLER_0_17_391
*428 FILLER_0_17_393
*429 FILLER_0_17_405
*430 FILLER_0_17_51
*431 FILLER_0_17_55
*432 FILLER_0_17_57
*433 FILLER_0_17_69
*434 FILLER_0_17_81
*435 FILLER_0_17_93
*436 FILLER_0_18_109
*437 FILLER_0_18_121
*438 FILLER_0_18_133
*439 FILLER_0_18_139
*440 FILLER_0_18_141
*441 FILLER_0_18_15
*442 FILLER_0_18_153
*443 FILLER_0_18_165
*444 FILLER_0_18_177
*445 FILLER_0_18_189
*446 FILLER_0_18_195
*447 FILLER_0_18_197
*448 FILLER_0_18_203
*449 FILLER_0_18_209
*450 FILLER_0_18_221
*451 FILLER_0_18_233
*452 FILLER_0_18_245
*453 FILLER_0_18_251
*454 FILLER_0_18_253
*455 FILLER_0_18_265
*456 FILLER_0_18_27
*457 FILLER_0_18_277
*458 FILLER_0_18_289
*459 FILLER_0_18_29
*460 FILLER_0_18_3
*461 FILLER_0_18_301
*462 FILLER_0_18_307
*463 FILLER_0_18_309
*464 FILLER_0_18_321
*465 FILLER_0_18_333
*466 FILLER_0_18_345
*467 FILLER_0_18_357
*468 FILLER_0_18_363
*469 FILLER_0_18_365
*470 FILLER_0_18_377
*471 FILLER_0_18_389
*472 FILLER_0_18_401
*473 FILLER_0_18_41
*474 FILLER_0_18_53
*475 FILLER_0_18_65
*476 FILLER_0_18_77
*477 FILLER_0_18_83
*478 FILLER_0_18_85
*479 FILLER_0_18_97
*480 FILLER_0_19_105
*481 FILLER_0_19_111
*482 FILLER_0_19_113
*483 FILLER_0_19_125
*484 FILLER_0_19_13
*485 FILLER_0_19_137
*486 FILLER_0_19_149
*487 FILLER_0_19_161
*488 FILLER_0_19_167
*489 FILLER_0_19_169
*490 FILLER_0_19_181
*491 FILLER_0_19_206
*492 FILLER_0_19_218
*493 FILLER_0_19_225
*494 FILLER_0_19_237
*495 FILLER_0_19_249
*496 FILLER_0_19_25
*497 FILLER_0_19_261
*498 FILLER_0_19_273
*499 FILLER_0_19_279
*500 FILLER_0_19_281
*501 FILLER_0_19_293
*502 FILLER_0_19_305
*503 FILLER_0_19_317
*504 FILLER_0_19_329
*505 FILLER_0_19_335
*506 FILLER_0_19_337
*507 FILLER_0_19_349
*508 FILLER_0_19_361
*509 FILLER_0_19_37
*510 FILLER_0_19_373
*511 FILLER_0_19_385
*512 FILLER_0_19_391
*513 FILLER_0_19_393
*514 FILLER_0_19_401
*515 FILLER_0_19_49
*516 FILLER_0_19_55
*517 FILLER_0_19_57
*518 FILLER_0_19_69
*519 FILLER_0_19_81
*520 FILLER_0_19_93
*521 FILLER_0_1_105
*522 FILLER_0_1_111
*523 FILLER_0_1_113
*524 FILLER_0_1_125
*525 FILLER_0_1_137
*526 FILLER_0_1_149
*527 FILLER_0_1_161
*528 FILLER_0_1_167
*529 FILLER_0_1_169
*530 FILLER_0_1_181
*531 FILLER_0_1_19
*532 FILLER_0_1_193
*533 FILLER_0_1_205
*534 FILLER_0_1_217
*535 FILLER_0_1_223
*536 FILLER_0_1_225
*537 FILLER_0_1_237
*538 FILLER_0_1_249
*539 FILLER_0_1_261
*540 FILLER_0_1_273
*541 FILLER_0_1_279
*542 FILLER_0_1_281
*543 FILLER_0_1_293
*544 FILLER_0_1_305
*545 FILLER_0_1_31
*546 FILLER_0_1_317
*547 FILLER_0_1_329
*548 FILLER_0_1_335
*549 FILLER_0_1_337
*550 FILLER_0_1_349
*551 FILLER_0_1_361
*552 FILLER_0_1_373
*553 FILLER_0_1_385
*554 FILLER_0_1_391
*555 FILLER_0_1_393
*556 FILLER_0_1_401
*557 FILLER_0_1_43
*558 FILLER_0_1_55
*559 FILLER_0_1_57
*560 FILLER_0_1_69
*561 FILLER_0_1_7
*562 FILLER_0_1_81
*563 FILLER_0_1_93
*564 FILLER_0_20_109
*565 FILLER_0_20_121
*566 FILLER_0_20_133
*567 FILLER_0_20_139
*568 FILLER_0_20_141
*569 FILLER_0_20_15
*570 FILLER_0_20_153
*571 FILLER_0_20_165
*572 FILLER_0_20_177
*573 FILLER_0_20_189
*574 FILLER_0_20_195
*575 FILLER_0_20_197
*576 FILLER_0_20_208
*577 FILLER_0_20_220
*578 FILLER_0_20_232
*579 FILLER_0_20_244
*580 FILLER_0_20_253
*581 FILLER_0_20_265
*582 FILLER_0_20_27
*583 FILLER_0_20_277
*584 FILLER_0_20_289
*585 FILLER_0_20_29
*586 FILLER_0_20_3
*587 FILLER_0_20_301
*588 FILLER_0_20_307
*589 FILLER_0_20_309
*590 FILLER_0_20_321
*591 FILLER_0_20_333
*592 FILLER_0_20_345
*593 FILLER_0_20_357
*594 FILLER_0_20_363
*595 FILLER_0_20_365
*596 FILLER_0_20_377
*597 FILLER_0_20_389
*598 FILLER_0_20_401
*599 FILLER_0_20_41
*600 FILLER_0_20_53
*601 FILLER_0_20_65
*602 FILLER_0_20_77
*603 FILLER_0_20_83
*604 FILLER_0_20_85
*605 FILLER_0_20_97
*606 FILLER_0_21_105
*607 FILLER_0_21_111
*608 FILLER_0_21_113
*609 FILLER_0_21_125
*610 FILLER_0_21_137
*611 FILLER_0_21_149
*612 FILLER_0_21_15
*613 FILLER_0_21_161
*614 FILLER_0_21_167
*615 FILLER_0_21_169
*616 FILLER_0_21_181
*617 FILLER_0_21_193
*618 FILLER_0_21_204
*619 FILLER_0_21_216
*620 FILLER_0_21_225
*621 FILLER_0_21_237
*622 FILLER_0_21_249
*623 FILLER_0_21_261
*624 FILLER_0_21_27
*625 FILLER_0_21_273
*626 FILLER_0_21_279
*627 FILLER_0_21_281
*628 FILLER_0_21_293
*629 FILLER_0_21_3
*630 FILLER_0_21_305
*631 FILLER_0_21_317
*632 FILLER_0_21_329
*633 FILLER_0_21_335
*634 FILLER_0_21_337
*635 FILLER_0_21_349
*636 FILLER_0_21_361
*637 FILLER_0_21_373
*638 FILLER_0_21_385
*639 FILLER_0_21_39
*640 FILLER_0_21_391
*641 FILLER_0_21_393
*642 FILLER_0_21_405
*643 FILLER_0_21_51
*644 FILLER_0_21_55
*645 FILLER_0_21_57
*646 FILLER_0_21_69
*647 FILLER_0_21_81
*648 FILLER_0_21_93
*649 FILLER_0_22_109
*650 FILLER_0_22_121
*651 FILLER_0_22_133
*652 FILLER_0_22_139
*653 FILLER_0_22_141
*654 FILLER_0_22_15
*655 FILLER_0_22_153
*656 FILLER_0_22_165
*657 FILLER_0_22_177
*658 FILLER_0_22_189
*659 FILLER_0_22_195
*660 FILLER_0_22_197
*661 FILLER_0_22_209
*662 FILLER_0_22_221
*663 FILLER_0_22_233
*664 FILLER_0_22_245
*665 FILLER_0_22_251
*666 FILLER_0_22_253
*667 FILLER_0_22_265
*668 FILLER_0_22_27
*669 FILLER_0_22_277
*670 FILLER_0_22_289
*671 FILLER_0_22_29
*672 FILLER_0_22_3
*673 FILLER_0_22_301
*674 FILLER_0_22_307
*675 FILLER_0_22_309
*676 FILLER_0_22_321
*677 FILLER_0_22_333
*678 FILLER_0_22_345
*679 FILLER_0_22_357
*680 FILLER_0_22_363
*681 FILLER_0_22_365
*682 FILLER_0_22_377
*683 FILLER_0_22_389
*684 FILLER_0_22_401
*685 FILLER_0_22_41
*686 FILLER_0_22_53
*687 FILLER_0_22_65
*688 FILLER_0_22_77
*689 FILLER_0_22_83
*690 FILLER_0_22_85
*691 FILLER_0_22_97
*692 FILLER_0_23_105
*693 FILLER_0_23_111
*694 FILLER_0_23_113
*695 FILLER_0_23_125
*696 FILLER_0_23_137
*697 FILLER_0_23_149
*698 FILLER_0_23_15
*699 FILLER_0_23_161
*700 FILLER_0_23_167
*701 FILLER_0_23_169
*702 FILLER_0_23_181
*703 FILLER_0_23_193
*704 FILLER_0_23_201
*705 FILLER_0_23_210
*706 FILLER_0_23_222
*707 FILLER_0_23_225
*708 FILLER_0_23_237
*709 FILLER_0_23_249
*710 FILLER_0_23_261
*711 FILLER_0_23_27
*712 FILLER_0_23_273
*713 FILLER_0_23_279
*714 FILLER_0_23_281
*715 FILLER_0_23_293
*716 FILLER_0_23_3
*717 FILLER_0_23_305
*718 FILLER_0_23_317
*719 FILLER_0_23_329
*720 FILLER_0_23_335
*721 FILLER_0_23_337
*722 FILLER_0_23_349
*723 FILLER_0_23_361
*724 FILLER_0_23_373
*725 FILLER_0_23_385
*726 FILLER_0_23_39
*727 FILLER_0_23_391
*728 FILLER_0_23_393
*729 FILLER_0_23_405
*730 FILLER_0_23_51
*731 FILLER_0_23_55
*732 FILLER_0_23_57
*733 FILLER_0_23_69
*734 FILLER_0_23_81
*735 FILLER_0_23_93
*736 FILLER_0_24_109
*737 FILLER_0_24_121
*738 FILLER_0_24_133
*739 FILLER_0_24_139
*740 FILLER_0_24_141
*741 FILLER_0_24_15
*742 FILLER_0_24_153
*743 FILLER_0_24_165
*744 FILLER_0_24_177
*745 FILLER_0_24_189
*746 FILLER_0_24_195
*747 FILLER_0_24_197
*748 FILLER_0_24_209
*749 FILLER_0_24_221
*750 FILLER_0_24_233
*751 FILLER_0_24_245
*752 FILLER_0_24_251
*753 FILLER_0_24_253
*754 FILLER_0_24_265
*755 FILLER_0_24_27
*756 FILLER_0_24_277
*757 FILLER_0_24_289
*758 FILLER_0_24_29
*759 FILLER_0_24_3
*760 FILLER_0_24_301
*761 FILLER_0_24_307
*762 FILLER_0_24_309
*763 FILLER_0_24_321
*764 FILLER_0_24_333
*765 FILLER_0_24_345
*766 FILLER_0_24_357
*767 FILLER_0_24_363
*768 FILLER_0_24_365
*769 FILLER_0_24_377
*770 FILLER_0_24_389
*771 FILLER_0_24_401
*772 FILLER_0_24_41
*773 FILLER_0_24_53
*774 FILLER_0_24_65
*775 FILLER_0_24_77
*776 FILLER_0_24_83
*777 FILLER_0_24_85
*778 FILLER_0_24_97
*779 FILLER_0_25_105
*780 FILLER_0_25_111
*781 FILLER_0_25_113
*782 FILLER_0_25_125
*783 FILLER_0_25_137
*784 FILLER_0_25_149
*785 FILLER_0_25_15
*786 FILLER_0_25_161
*787 FILLER_0_25_167
*788 FILLER_0_25_169
*789 FILLER_0_25_181
*790 FILLER_0_25_193
*791 FILLER_0_25_205
*792 FILLER_0_25_217
*793 FILLER_0_25_223
*794 FILLER_0_25_225
*795 FILLER_0_25_237
*796 FILLER_0_25_249
*797 FILLER_0_25_261
*798 FILLER_0_25_27
*799 FILLER_0_25_273
*800 FILLER_0_25_279
*801 FILLER_0_25_281
*802 FILLER_0_25_293
*803 FILLER_0_25_3
*804 FILLER_0_25_305
*805 FILLER_0_25_317
*806 FILLER_0_25_329
*807 FILLER_0_25_335
*808 FILLER_0_25_337
*809 FILLER_0_25_349
*810 FILLER_0_25_361
*811 FILLER_0_25_373
*812 FILLER_0_25_385
*813 FILLER_0_25_39
*814 FILLER_0_25_391
*815 FILLER_0_25_393
*816 FILLER_0_25_405
*817 FILLER_0_25_51
*818 FILLER_0_25_55
*819 FILLER_0_25_57
*820 FILLER_0_25_69
*821 FILLER_0_25_81
*822 FILLER_0_25_93
*823 FILLER_0_26_109
*824 FILLER_0_26_121
*825 FILLER_0_26_133
*826 FILLER_0_26_139
*827 FILLER_0_26_141
*828 FILLER_0_26_15
*829 FILLER_0_26_153
*830 FILLER_0_26_165
*831 FILLER_0_26_177
*832 FILLER_0_26_189
*833 FILLER_0_26_195
*834 FILLER_0_26_197
*835 FILLER_0_26_209
*836 FILLER_0_26_221
*837 FILLER_0_26_233
*838 FILLER_0_26_245
*839 FILLER_0_26_251
*840 FILLER_0_26_253
*841 FILLER_0_26_265
*842 FILLER_0_26_27
*843 FILLER_0_26_277
*844 FILLER_0_26_289
*845 FILLER_0_26_29
*846 FILLER_0_26_3
*847 FILLER_0_26_301
*848 FILLER_0_26_307
*849 FILLER_0_26_309
*850 FILLER_0_26_321
*851 FILLER_0_26_333
*852 FILLER_0_26_345
*853 FILLER_0_26_357
*854 FILLER_0_26_363
*855 FILLER_0_26_365
*856 FILLER_0_26_377
*857 FILLER_0_26_389
*858 FILLER_0_26_401
*859 FILLER_0_26_41
*860 FILLER_0_26_53
*861 FILLER_0_26_65
*862 FILLER_0_26_77
*863 FILLER_0_26_83
*864 FILLER_0_26_85
*865 FILLER_0_26_97
*866 FILLER_0_27_105
*867 FILLER_0_27_111
*868 FILLER_0_27_113
*869 FILLER_0_27_125
*870 FILLER_0_27_137
*871 FILLER_0_27_149
*872 FILLER_0_27_15
*873 FILLER_0_27_161
*874 FILLER_0_27_167
*875 FILLER_0_27_169
*876 FILLER_0_27_181
*877 FILLER_0_27_193
*878 FILLER_0_27_205
*879 FILLER_0_27_217
*880 FILLER_0_27_223
*881 FILLER_0_27_225
*882 FILLER_0_27_237
*883 FILLER_0_27_249
*884 FILLER_0_27_261
*885 FILLER_0_27_27
*886 FILLER_0_27_273
*887 FILLER_0_27_279
*888 FILLER_0_27_281
*889 FILLER_0_27_293
*890 FILLER_0_27_3
*891 FILLER_0_27_305
*892 FILLER_0_27_317
*893 FILLER_0_27_329
*894 FILLER_0_27_335
*895 FILLER_0_27_337
*896 FILLER_0_27_349
*897 FILLER_0_27_361
*898 FILLER_0_27_373
*899 FILLER_0_27_385
*900 FILLER_0_27_39
*901 FILLER_0_27_391
*902 FILLER_0_27_393
*903 FILLER_0_27_405
*904 FILLER_0_27_51
*905 FILLER_0_27_55
*906 FILLER_0_27_57
*907 FILLER_0_27_69
*908 FILLER_0_27_81
*909 FILLER_0_27_93
*910 FILLER_0_28_109
*911 FILLER_0_28_121
*912 FILLER_0_28_13
*913 FILLER_0_28_133
*914 FILLER_0_28_139
*915 FILLER_0_28_141
*916 FILLER_0_28_153
*917 FILLER_0_28_165
*918 FILLER_0_28_177
*919 FILLER_0_28_189
*920 FILLER_0_28_195
*921 FILLER_0_28_197
*922 FILLER_0_28_209
*923 FILLER_0_28_221
*924 FILLER_0_28_233
*925 FILLER_0_28_245
*926 FILLER_0_28_25
*927 FILLER_0_28_251
*928 FILLER_0_28_253
*929 FILLER_0_28_265
*930 FILLER_0_28_277
*931 FILLER_0_28_289
*932 FILLER_0_28_29
*933 FILLER_0_28_301
*934 FILLER_0_28_307
*935 FILLER_0_28_309
*936 FILLER_0_28_321
*937 FILLER_0_28_333
*938 FILLER_0_28_345
*939 FILLER_0_28_357
*940 FILLER_0_28_363
*941 FILLER_0_28_365
*942 FILLER_0_28_377
*943 FILLER_0_28_389
*944 FILLER_0_28_401
*945 FILLER_0_28_41
*946 FILLER_0_28_53
*947 FILLER_0_28_65
*948 FILLER_0_28_77
*949 FILLER_0_28_83
*950 FILLER_0_28_85
*951 FILLER_0_28_97
*952 FILLER_0_29_105
*953 FILLER_0_29_111
*954 FILLER_0_29_113
*955 FILLER_0_29_125
*956 FILLER_0_29_137
*957 FILLER_0_29_149
*958 FILLER_0_29_15
*959 FILLER_0_29_161
*960 FILLER_0_29_167
*961 FILLER_0_29_169
*962 FILLER_0_29_181
*963 FILLER_0_29_193
*964 FILLER_0_29_205
*965 FILLER_0_29_217
*966 FILLER_0_29_223
*967 FILLER_0_29_225
*968 FILLER_0_29_237
*969 FILLER_0_29_249
*970 FILLER_0_29_261
*971 FILLER_0_29_27
*972 FILLER_0_29_273
*973 FILLER_0_29_279
*974 FILLER_0_29_281
*975 FILLER_0_29_293
*976 FILLER_0_29_3
*977 FILLER_0_29_305
*978 FILLER_0_29_317
*979 FILLER_0_29_329
*980 FILLER_0_29_335
*981 FILLER_0_29_337
*982 FILLER_0_29_349
*983 FILLER_0_29_361
*984 FILLER_0_29_373
*985 FILLER_0_29_385
*986 FILLER_0_29_39
*987 FILLER_0_29_391
*988 FILLER_0_29_393
*989 FILLER_0_29_405
*990 FILLER_0_29_51
*991 FILLER_0_29_55
*992 FILLER_0_29_57
*993 FILLER_0_29_69
*994 FILLER_0_29_81
*995 FILLER_0_29_93
*996 FILLER_0_2_109
*997 FILLER_0_2_121
*998 FILLER_0_2_133
*999 FILLER_0_2_139
*1000 FILLER_0_2_141
*1001 FILLER_0_2_15
*1002 FILLER_0_2_153
*1003 FILLER_0_2_165
*1004 FILLER_0_2_177
*1005 FILLER_0_2_189
*1006 FILLER_0_2_195
*1007 FILLER_0_2_197
*1008 FILLER_0_2_209
*1009 FILLER_0_2_221
*1010 FILLER_0_2_233
*1011 FILLER_0_2_245
*1012 FILLER_0_2_251
*1013 FILLER_0_2_253
*1014 FILLER_0_2_265
*1015 FILLER_0_2_27
*1016 FILLER_0_2_277
*1017 FILLER_0_2_289
*1018 FILLER_0_2_29
*1019 FILLER_0_2_3
*1020 FILLER_0_2_301
*1021 FILLER_0_2_307
*1022 FILLER_0_2_309
*1023 FILLER_0_2_321
*1024 FILLER_0_2_333
*1025 FILLER_0_2_345
*1026 FILLER_0_2_357
*1027 FILLER_0_2_363
*1028 FILLER_0_2_365
*1029 FILLER_0_2_377
*1030 FILLER_0_2_389
*1031 FILLER_0_2_401
*1032 FILLER_0_2_41
*1033 FILLER_0_2_53
*1034 FILLER_0_2_65
*1035 FILLER_0_2_77
*1036 FILLER_0_2_83
*1037 FILLER_0_2_85
*1038 FILLER_0_2_97
*1039 FILLER_0_30_109
*1040 FILLER_0_30_121
*1041 FILLER_0_30_133
*1042 FILLER_0_30_139
*1043 FILLER_0_30_141
*1044 FILLER_0_30_15
*1045 FILLER_0_30_153
*1046 FILLER_0_30_165
*1047 FILLER_0_30_177
*1048 FILLER_0_30_189
*1049 FILLER_0_30_195
*1050 FILLER_0_30_197
*1051 FILLER_0_30_209
*1052 FILLER_0_30_221
*1053 FILLER_0_30_233
*1054 FILLER_0_30_245
*1055 FILLER_0_30_251
*1056 FILLER_0_30_253
*1057 FILLER_0_30_265
*1058 FILLER_0_30_27
*1059 FILLER_0_30_277
*1060 FILLER_0_30_289
*1061 FILLER_0_30_29
*1062 FILLER_0_30_3
*1063 FILLER_0_30_301
*1064 FILLER_0_30_307
*1065 FILLER_0_30_309
*1066 FILLER_0_30_321
*1067 FILLER_0_30_333
*1068 FILLER_0_30_345
*1069 FILLER_0_30_357
*1070 FILLER_0_30_363
*1071 FILLER_0_30_365
*1072 FILLER_0_30_377
*1073 FILLER_0_30_389
*1074 FILLER_0_30_401
*1075 FILLER_0_30_41
*1076 FILLER_0_30_53
*1077 FILLER_0_30_65
*1078 FILLER_0_30_77
*1079 FILLER_0_30_83
*1080 FILLER_0_30_85
*1081 FILLER_0_30_97
*1082 FILLER_0_31_105
*1083 FILLER_0_31_111
*1084 FILLER_0_31_113
*1085 FILLER_0_31_125
*1086 FILLER_0_31_137
*1087 FILLER_0_31_149
*1088 FILLER_0_31_15
*1089 FILLER_0_31_161
*1090 FILLER_0_31_167
*1091 FILLER_0_31_169
*1092 FILLER_0_31_181
*1093 FILLER_0_31_193
*1094 FILLER_0_31_205
*1095 FILLER_0_31_217
*1096 FILLER_0_31_223
*1097 FILLER_0_31_225
*1098 FILLER_0_31_237
*1099 FILLER_0_31_249
*1100 FILLER_0_31_261
*1101 FILLER_0_31_27
*1102 FILLER_0_31_273
*1103 FILLER_0_31_279
*1104 FILLER_0_31_281
*1105 FILLER_0_31_293
*1106 FILLER_0_31_3
*1107 FILLER_0_31_305
*1108 FILLER_0_31_317
*1109 FILLER_0_31_329
*1110 FILLER_0_31_335
*1111 FILLER_0_31_337
*1112 FILLER_0_31_349
*1113 FILLER_0_31_361
*1114 FILLER_0_31_373
*1115 FILLER_0_31_385
*1116 FILLER_0_31_39
*1117 FILLER_0_31_391
*1118 FILLER_0_31_393
*1119 FILLER_0_31_405
*1120 FILLER_0_31_51
*1121 FILLER_0_31_55
*1122 FILLER_0_31_57
*1123 FILLER_0_31_69
*1124 FILLER_0_31_81
*1125 FILLER_0_31_93
*1126 FILLER_0_32_109
*1127 FILLER_0_32_121
*1128 FILLER_0_32_133
*1129 FILLER_0_32_139
*1130 FILLER_0_32_141
*1131 FILLER_0_32_15
*1132 FILLER_0_32_153
*1133 FILLER_0_32_165
*1134 FILLER_0_32_177
*1135 FILLER_0_32_189
*1136 FILLER_0_32_195
*1137 FILLER_0_32_197
*1138 FILLER_0_32_209
*1139 FILLER_0_32_221
*1140 FILLER_0_32_233
*1141 FILLER_0_32_245
*1142 FILLER_0_32_251
*1143 FILLER_0_32_253
*1144 FILLER_0_32_265
*1145 FILLER_0_32_27
*1146 FILLER_0_32_277
*1147 FILLER_0_32_289
*1148 FILLER_0_32_29
*1149 FILLER_0_32_3
*1150 FILLER_0_32_301
*1151 FILLER_0_32_307
*1152 FILLER_0_32_309
*1153 FILLER_0_32_321
*1154 FILLER_0_32_333
*1155 FILLER_0_32_345
*1156 FILLER_0_32_357
*1157 FILLER_0_32_363
*1158 FILLER_0_32_365
*1159 FILLER_0_32_377
*1160 FILLER_0_32_389
*1161 FILLER_0_32_401
*1162 FILLER_0_32_41
*1163 FILLER_0_32_53
*1164 FILLER_0_32_65
*1165 FILLER_0_32_77
*1166 FILLER_0_32_83
*1167 FILLER_0_32_85
*1168 FILLER_0_32_97
*1169 FILLER_0_33_105
*1170 FILLER_0_33_111
*1171 FILLER_0_33_113
*1172 FILLER_0_33_125
*1173 FILLER_0_33_137
*1174 FILLER_0_33_149
*1175 FILLER_0_33_15
*1176 FILLER_0_33_161
*1177 FILLER_0_33_167
*1178 FILLER_0_33_169
*1179 FILLER_0_33_181
*1180 FILLER_0_33_193
*1181 FILLER_0_33_205
*1182 FILLER_0_33_217
*1183 FILLER_0_33_223
*1184 FILLER_0_33_225
*1185 FILLER_0_33_237
*1186 FILLER_0_33_249
*1187 FILLER_0_33_261
*1188 FILLER_0_33_27
*1189 FILLER_0_33_273
*1190 FILLER_0_33_279
*1191 FILLER_0_33_281
*1192 FILLER_0_33_293
*1193 FILLER_0_33_3
*1194 FILLER_0_33_305
*1195 FILLER_0_33_317
*1196 FILLER_0_33_329
*1197 FILLER_0_33_335
*1198 FILLER_0_33_337
*1199 FILLER_0_33_349
*1200 FILLER_0_33_361
*1201 FILLER_0_33_373
*1202 FILLER_0_33_385
*1203 FILLER_0_33_39
*1204 FILLER_0_33_391
*1205 FILLER_0_33_393
*1206 FILLER_0_33_405
*1207 FILLER_0_33_51
*1208 FILLER_0_33_55
*1209 FILLER_0_33_57
*1210 FILLER_0_33_69
*1211 FILLER_0_33_81
*1212 FILLER_0_33_93
*1213 FILLER_0_34_109
*1214 FILLER_0_34_121
*1215 FILLER_0_34_133
*1216 FILLER_0_34_139
*1217 FILLER_0_34_141
*1218 FILLER_0_34_15
*1219 FILLER_0_34_153
*1220 FILLER_0_34_165
*1221 FILLER_0_34_177
*1222 FILLER_0_34_189
*1223 FILLER_0_34_195
*1224 FILLER_0_34_197
*1225 FILLER_0_34_209
*1226 FILLER_0_34_221
*1227 FILLER_0_34_233
*1228 FILLER_0_34_245
*1229 FILLER_0_34_251
*1230 FILLER_0_34_253
*1231 FILLER_0_34_265
*1232 FILLER_0_34_27
*1233 FILLER_0_34_277
*1234 FILLER_0_34_289
*1235 FILLER_0_34_29
*1236 FILLER_0_34_3
*1237 FILLER_0_34_301
*1238 FILLER_0_34_307
*1239 FILLER_0_34_309
*1240 FILLER_0_34_321
*1241 FILLER_0_34_333
*1242 FILLER_0_34_345
*1243 FILLER_0_34_357
*1244 FILLER_0_34_363
*1245 FILLER_0_34_365
*1246 FILLER_0_34_377
*1247 FILLER_0_34_389
*1248 FILLER_0_34_401
*1249 FILLER_0_34_41
*1250 FILLER_0_34_53
*1251 FILLER_0_34_65
*1252 FILLER_0_34_77
*1253 FILLER_0_34_83
*1254 FILLER_0_34_85
*1255 FILLER_0_34_97
*1256 FILLER_0_35_105
*1257 FILLER_0_35_111
*1258 FILLER_0_35_113
*1259 FILLER_0_35_125
*1260 FILLER_0_35_137
*1261 FILLER_0_35_149
*1262 FILLER_0_35_15
*1263 FILLER_0_35_161
*1264 FILLER_0_35_167
*1265 FILLER_0_35_169
*1266 FILLER_0_35_181
*1267 FILLER_0_35_193
*1268 FILLER_0_35_205
*1269 FILLER_0_35_217
*1270 FILLER_0_35_223
*1271 FILLER_0_35_225
*1272 FILLER_0_35_237
*1273 FILLER_0_35_249
*1274 FILLER_0_35_261
*1275 FILLER_0_35_27
*1276 FILLER_0_35_273
*1277 FILLER_0_35_279
*1278 FILLER_0_35_281
*1279 FILLER_0_35_293
*1280 FILLER_0_35_3
*1281 FILLER_0_35_305
*1282 FILLER_0_35_317
*1283 FILLER_0_35_329
*1284 FILLER_0_35_335
*1285 FILLER_0_35_337
*1286 FILLER_0_35_349
*1287 FILLER_0_35_361
*1288 FILLER_0_35_373
*1289 FILLER_0_35_385
*1290 FILLER_0_35_39
*1291 FILLER_0_35_391
*1292 FILLER_0_35_393
*1293 FILLER_0_35_405
*1294 FILLER_0_35_51
*1295 FILLER_0_35_55
*1296 FILLER_0_35_57
*1297 FILLER_0_35_69
*1298 FILLER_0_35_81
*1299 FILLER_0_35_93
*1300 FILLER_0_36_109
*1301 FILLER_0_36_121
*1302 FILLER_0_36_133
*1303 FILLER_0_36_139
*1304 FILLER_0_36_141
*1305 FILLER_0_36_15
*1306 FILLER_0_36_153
*1307 FILLER_0_36_165
*1308 FILLER_0_36_177
*1309 FILLER_0_36_189
*1310 FILLER_0_36_195
*1311 FILLER_0_36_197
*1312 FILLER_0_36_209
*1313 FILLER_0_36_221
*1314 FILLER_0_36_233
*1315 FILLER_0_36_245
*1316 FILLER_0_36_251
*1317 FILLER_0_36_253
*1318 FILLER_0_36_265
*1319 FILLER_0_36_27
*1320 FILLER_0_36_277
*1321 FILLER_0_36_289
*1322 FILLER_0_36_29
*1323 FILLER_0_36_3
*1324 FILLER_0_36_301
*1325 FILLER_0_36_307
*1326 FILLER_0_36_309
*1327 FILLER_0_36_321
*1328 FILLER_0_36_333
*1329 FILLER_0_36_345
*1330 FILLER_0_36_357
*1331 FILLER_0_36_363
*1332 FILLER_0_36_365
*1333 FILLER_0_36_377
*1334 FILLER_0_36_389
*1335 FILLER_0_36_401
*1336 FILLER_0_36_41
*1337 FILLER_0_36_53
*1338 FILLER_0_36_65
*1339 FILLER_0_36_77
*1340 FILLER_0_36_83
*1341 FILLER_0_36_85
*1342 FILLER_0_36_97
*1343 FILLER_0_37_105
*1344 FILLER_0_37_111
*1345 FILLER_0_37_113
*1346 FILLER_0_37_125
*1347 FILLER_0_37_137
*1348 FILLER_0_37_149
*1349 FILLER_0_37_161
*1350 FILLER_0_37_167
*1351 FILLER_0_37_169
*1352 FILLER_0_37_18
*1353 FILLER_0_37_181
*1354 FILLER_0_37_193
*1355 FILLER_0_37_205
*1356 FILLER_0_37_217
*1357 FILLER_0_37_223
*1358 FILLER_0_37_225
*1359 FILLER_0_37_237
*1360 FILLER_0_37_249
*1361 FILLER_0_37_261
*1362 FILLER_0_37_273
*1363 FILLER_0_37_279
*1364 FILLER_0_37_281
*1365 FILLER_0_37_293
*1366 FILLER_0_37_30
*1367 FILLER_0_37_305
*1368 FILLER_0_37_317
*1369 FILLER_0_37_329
*1370 FILLER_0_37_335
*1371 FILLER_0_37_337
*1372 FILLER_0_37_349
*1373 FILLER_0_37_361
*1374 FILLER_0_37_373
*1375 FILLER_0_37_385
*1376 FILLER_0_37_391
*1377 FILLER_0_37_393
*1378 FILLER_0_37_401
*1379 FILLER_0_37_42
*1380 FILLER_0_37_54
*1381 FILLER_0_37_57
*1382 FILLER_0_37_6
*1383 FILLER_0_37_69
*1384 FILLER_0_37_81
*1385 FILLER_0_37_93
*1386 FILLER_0_38_109
*1387 FILLER_0_38_121
*1388 FILLER_0_38_133
*1389 FILLER_0_38_139
*1390 FILLER_0_38_141
*1391 FILLER_0_38_15
*1392 FILLER_0_38_153
*1393 FILLER_0_38_165
*1394 FILLER_0_38_177
*1395 FILLER_0_38_189
*1396 FILLER_0_38_195
*1397 FILLER_0_38_197
*1398 FILLER_0_38_205
*1399 FILLER_0_38_211
*1400 FILLER_0_38_223
*1401 FILLER_0_38_235
*1402 FILLER_0_38_247
*1403 FILLER_0_38_251
*1404 FILLER_0_38_253
*1405 FILLER_0_38_265
*1406 FILLER_0_38_27
*1407 FILLER_0_38_277
*1408 FILLER_0_38_289
*1409 FILLER_0_38_29
*1410 FILLER_0_38_3
*1411 FILLER_0_38_301
*1412 FILLER_0_38_307
*1413 FILLER_0_38_309
*1414 FILLER_0_38_321
*1415 FILLER_0_38_333
*1416 FILLER_0_38_345
*1417 FILLER_0_38_357
*1418 FILLER_0_38_363
*1419 FILLER_0_38_365
*1420 FILLER_0_38_377
*1421 FILLER_0_38_389
*1422 FILLER_0_38_401
*1423 FILLER_0_38_41
*1424 FILLER_0_38_53
*1425 FILLER_0_38_65
*1426 FILLER_0_38_77
*1427 FILLER_0_38_83
*1428 FILLER_0_38_85
*1429 FILLER_0_38_97
*1430 FILLER_0_39_105
*1431 FILLER_0_39_111
*1432 FILLER_0_39_113
*1433 FILLER_0_39_125
*1434 FILLER_0_39_137
*1435 FILLER_0_39_149
*1436 FILLER_0_39_15
*1437 FILLER_0_39_161
*1438 FILLER_0_39_167
*1439 FILLER_0_39_169
*1440 FILLER_0_39_181
*1441 FILLER_0_39_193
*1442 FILLER_0_39_205